xflr5 v6.47

 Calculated polar for: NACA 4420

 1 1 Reynolds number fixed          Mach number fixed         

 xtrf =   1.000 (top)        1.000 (bottom)
 Mach =   0.000     Re =     0.080 e 6     Ncrit =   9.000

  alpha     CL        CD       CDp       Cm    Top Xtr Bot Xtr   Cpmin    Chinge    XCp    
 ------- -------- --------- --------- -------- ------- ------- -------- --------- ---------
  -5.000  -0.3419   0.04012   0.03099  -0.0716  0.8436  0.2223  -2.0289   0.0000   0.0192
  -4.500  -0.2712   0.03868   0.02924  -0.0743  0.8285  0.2424  -1.8500   0.0000  -0.0481
  -4.000  -0.2302   0.03813   0.02878  -0.0727  0.8090  0.2611  -1.7279   0.0000  -0.0915
  -3.500  -0.1409   0.03631   0.02682  -0.0778  0.7996  0.2919  -1.5449   0.0000  -0.3383
  -3.000  -0.1074   0.03626   0.02678  -0.0747  0.7775  0.3162  -1.4356   0.0000  -0.4877
  -2.500  -0.0139   0.03431   0.02503  -0.0799  0.7710  0.3585  -1.2542   0.0000  -5.7638
  -2.000   0.0053   0.03512   0.02591  -0.0751  0.7483  0.3894  -1.1784   0.0000  14.9175
  -1.500   0.1033   0.03283   0.02390  -0.0800  0.7427  0.4546  -1.0092   0.0000   1.0470
  -1.000   0.1098   0.03455   0.02590  -0.0736  0.7195  0.4995  -0.9521   0.0000   0.9369
  -0.500   0.1987   0.03254   0.02443  -0.0761  0.7144  0.6163  -0.8283   0.0000   0.6381
   0.000   0.1908   0.03504   0.02742  -0.0670  0.6909  0.7147  -0.8232   0.0000   0.6041
   0.500   0.2808   0.03355   0.02630  -0.0662  0.6863  0.8910  -0.8990   0.0000   0.4844
   1.500   0.5494   0.03437   0.02658  -0.0953  0.6610  1.0000  -1.0968   0.0000   0.4187
   2.000   0.6116   0.03349   0.02539  -0.0961  0.6536  1.0000  -1.1596   0.0000   0.4013
   2.500   0.4896   0.03931   0.03116  -0.0723  0.6288  1.0000  -1.0697   0.0000   0.3906
   3.000   0.6209   0.03660   0.02816  -0.0814  0.6250  1.0000  -1.1911   0.0000   0.3732
   9.500   0.6662   0.10048   0.09188  -0.0442  0.4260  1.0000  -1.2865   0.0000   0.2963
  10.000   0.6293   0.11066   0.10215  -0.0445  0.4118  1.0000  -1.2224   0.0000   0.2996
  10.500   0.6762   0.11265   0.10415  -0.0439  0.3994  1.0000  -1.3030   0.0000   0.2931
  11.000   0.6573   0.12108   0.11266  -0.0444  0.3851  1.0000  -1.2692   0.0000   0.2949
  11.500   0.6708   0.12675   0.11843  -0.0449  0.3751  1.0000  -1.2896   0.0000   0.2935
  12.000   0.6837   0.13188   0.12359  -0.0449  0.3593  1.0000  -1.3184   0.0000   0.2914
  12.500   0.6720   0.14096   0.13278  -0.0471  0.3554  1.0000  -1.2827   0.0000   0.2951
  13.000   0.6731   0.14887   0.14078  -0.0491  0.3520  1.0000  -1.2706   0.0000   0.2974
  13.500   0.7051   0.15441   0.14639  -0.0499  0.3454  1.0000  -1.3342   0.0000   0.2945
  14.000   0.7252   0.15731   0.14932  -0.0497  0.3207  1.0000  -1.3874   0.0000   0.2912
  14.500   0.7263   0.16415   0.15622  -0.0516  0.3079  1.0000  -1.3849   0.0000   0.2928
  15.000   0.7681   0.16710   0.15926  -0.0511  0.2936  1.0000  -1.4941   0.0000   0.2874
  15.500   0.7623   0.17590   0.16814  -0.0542  0.2864  1.0000  -1.4625   0.0000   0.2912
  16.000   0.8001   0.17727   0.16953  -0.0532  0.2632  1.0000  -1.5794   0.0000   0.2855
  16.500   0.8148   0.18753   0.17990  -0.0561  0.2648  1.0000  -1.5959   0.0000   0.2872
  17.000   0.8390   0.18892   0.18134  -0.0563  0.2438  1.0000  -1.6819   0.0000   0.2842
  19.000   0.8568   0.22988   0.22266  -0.0723  0.2415  1.0000  -1.5947   0.0000   0.2985
  19.500   0.8420   0.23057   0.22337  -0.0786  0.2266  1.0000  -1.5168   0.0000   0.3060
  20.000   0.9001   0.24473   0.23764  -0.0762  0.2192  1.0000  -1.6883   0.0000   0.2966
  20.500   0.8701   0.24230   0.23518  -0.0854  0.2071  1.0000  -1.5442   0.0000   0.3085
  21.000   0.9017   0.24934   0.24231  -0.0859  0.2000  1.0000  -1.6476   0.0000   0.3045
  21.500   0.9211   0.26073   0.25375  -0.0885  0.1967  1.0000  -1.6823   0.0000   0.3043
  22.000   0.9197   0.26007   0.25315  -0.0950  0.1818  1.0000  -1.6376   0.0000   0.3100
  22.500   0.9698   0.27740   0.27061  -0.0920  0.1768  1.0000  -1.8149   0.0000   0.3008
  23.000   0.9434   0.27323   0.26638  -0.1036  0.1691  1.0000  -1.6253   0.0000   0.3139
  23.500   0.9628   0.27906   0.27227  -0.1063  0.1612  1.0000  -1.6757   0.0000   0.3132
  24.000   1.0056   0.29568   0.28902  -0.1039  0.1569  1.0000  -1.8549   0.0000   0.3053
  24.500   0.9862   0.29209   0.28537  -0.1153  0.1473  1.0000  -1.6931   0.0000   0.3170
  25.000   1.0076   0.29829   0.29163  -0.1174  0.1408  1.0000  -1.7663   0.0000   0.3151


